42
from LCSO final .cif ->converted to full unit cell and then to cartesian 
Se	-1.735047752	7.642459	5.159653432
Se	4.738355187	3.024659	5.345382467
Se	6.430152709	1.593141	1.843703834
Se	-0.043250231	6.210941	1.657974799
Se	0.532523685	1.69565616	4.352096306
Se	2.47078375	6.31345616	6.152939593
Se	4.162581271	7.53994384	2.65126096
Se	2.224321207	2.92214384	0.850417673
Co	4.03935 	0	0
Co	2.347552478	4.6178	3.501678633
Co	-0.587418522	4.703783436	4.73482978
Co	3.590725957	0.085983436	5.770206118
Co	5.282523478	4.531816564	2.268527486
Co	1.104379	9.149616564	1.233151147
O	-0.286462722	8.476987816	5.337748807
O	3.289770157	3.859187816	5.167287091
O	4.981567679	0.758612184	1.665608459
O	1.405334799	5.376412184	1.836070174
O	-1.410379669	6.13797976	5.870003959
O	4.413687103	1.52017976	4.635031939
O	6.105484625	3.09762024	1.133353306
O	0.281417853	7.71542024	2.368325327
O	-2.730801123	8.324323348	6.360519102
O	5.734108557	3.706523348	4.144516796
O	7.425906079	0.911276652	0.642838163
O	-1.039003601	5.529076652	2.858840469
O	0.780268627	3.373487612	4.042477881
O	2.223038808	7.991287612	6.462558018
O	3.914836329	5.862112388	2.960879385
O	2.472066149	1.244312388	0.540799248
O	1.593590035	1.381461048	5.670548344
O	1.409717399	5.999261048	4.834487554
O	3.101514921	7.854138952	1.332808921
O	3.285387557	3.236338952	2.168869712
O	1.40081106	0.984422604	3.104378175
O	4.986091418	5.602222604	0.397300458
O	3.294293896	8.251177396	3.898979091
O	-0.290986462	3.633377396	6.606056808
Li	2.939974021	5.9246374	0.566571603
Li	3.446928457	1.3068374	2.93510703
Li	1.755130935	3.3109626	6.436785663
Li	1.248176499	7.9287626	4.068250236


